*Heading
** Job name: Job_Mesh6_8 Model name: Model-1
** Generated by: Abaqus/CAE 2016
*Preprint, echo=NO, model=NO, history=NO, contact=NO
**
** PARTS
**
*Part, name=ASTMmodel-1
*End Part
**  
**
** ASSEMBLY
**
*Assembly, name=Assembly
**  
*Instance, name=ASTMmodel-1-1, part=ASTMmodel-1
3.41068750991032, -10.5976117929871, -11.4824266914838
3.41068750991032, -10.5976117929871, -11.4824266914838, 3.46909879051356, -9.8554260953639, -12.1500706743133, 13.4459728326858
*Node
      1,   12.1746359,           0.,   7.27215338
      2,   14.1453009,  -6.83062315,   2.32616854
      3,   24.3778877,  -6.52336168,    2.3195796
      4,   22.5075321,           0.,   6.97692776
      5,   14.3101625,  -5.30536079,           0.
      6,   24.5439777,  -5.01296616,           0.
      7,   12.7620077,   6.87207556,  -2.32701349
      8,   11.9373159,   6.89677906,   2.32751226
      9,    22.269165,    6.5867753,   2.32098842
     10,   23.0915508,   6.56205082,   -2.3204422
     11,   14.9616089,  -6.80615187,    -2.325665
     12,   25.1918602,  -6.49887037,  -2.31902838
     13,   24.9556408,           0.,  -6.90698147
     14,   14.7263346,           0.,  -7.19924736
     15,   98.7406616,   3.37560153,   1.48917818
     16,   98.7406616,  -3.37560153,   1.48917818
     17,    100.32077,  -2.84796977,  1.31603713e-07
     18,   98.7406616,  -3.37560153,  -1.48917818
     19,   98.7406616,   3.37560153,  -1.48917818
     20,   88.9000015,  -4.55078936,   2.25759077
** ... 7140 like lines cut
*Element, type=C3D10
  1,  626,  627,  628,  629, 1071, 1070, 1069, 1073, 1072, 1074
  2,  630,  627,  626,  629, 1076, 1071, 1075, 1077, 1072, 1073
  3,  631,  632,  633,  634, 1080, 1079, 1078, 1082, 1081, 1083
  4,  628,  635,  636,  626, 1086, 1085, 1084, 1069, 1087, 1088
  5,  637,  626,  636,  638, 1090, 1088, 1089, 1092, 1091, 1093
  6,  627,  639,  637,  638, 1096, 1095, 1094, 1098, 1097, 1092
  7,  626,  639,  630,  640, 1100, 1099, 1075, 1102, 1101, 1103
  8,  628,  641,  629,  642, 1105, 1104, 1074, 1107, 1106, 1108
  9,   11,   12,  643,  100, 1111, 1110, 1109, 1113, 1112, 1114
 10,  628,  644,  627,  637, 1116, 1115, 1070, 1118, 1117, 1094
 11,  626,  628,  641,  629, 1069, 1105, 1119, 1073, 1074, 1104
 12,  637,  626,  628,  636, 1090, 1069, 1118, 1089, 1088, 1084
 13,  632,  645,  646,  647, 1122, 1121, 1120, 1124, 1123, 1125
 14,  628,  648,  649,  632, 1128, 1127, 1126, 1130, 1129, 1131
 15,  628,  650,  648,  632, 1133, 1132, 1128, 1130, 1134, 1129
 16,  642,  649,  651,  628, 1137, 1136, 1135, 1107, 1126, 1138
 17,  645,  648,  650,  632, 1140, 1132, 1139, 1122, 1129, 1134
 18,  648,  632,  645,  652, 1129, 1122, 1140, 1142, 1141, 1143
 19,  648,  641,  653,  654, 1146, 1145, 1144, 1148, 1147, 1149
 20,  648,  641,  655,  653, 1146, 1151, 1150, 1144, 1145, 1152
** ... 4418 like lines cut
*Nset, nset=Set-1, generate
    1,  7160,     1
*Elset, elset=Set-1, generate
    1,  4438,     1
** Section: Section-1
*Solid Section, elset=Set-1, material=Steel
,
*End Instance
**  
*Nset, nset=Set-1, instance=ASTMmodel-1-1
    3,    4,    6,    9,   10,   12,   13,   15,   16,   17,   18,   19,   20,   21,   22,   23
   24,   25,   90,   92,   95,   96,   98,  100,  101,  102,  105,  106,  107,  108,  109,  110
  111,  112,  113,  114,  115,  116,  117,  118,  119,  120,  121,  122,  123,  124,  125,  126
  127,  128,  129,  130,  131,  132,  133,  134,  135,  136,  137,  138,  139,  140,  141,  142
  143,  144,  145,  146,  147,  148,  149,  150,  151,  152,  153,  154,  155,  156,  157,  158
  159,  160,  161,  162,  163,  164,  165,  166,  167,  168,  169,  170,  171,  172,  173,  174
  175,  176,  177,  178,  179,  180,  181,  182,  183,  184,  185,  186,  187,  188,  189,  190
  191,  192,  193,  194,  195,  196,  197,  198,  199,  200,  201,  202,  203,  204,  205,  206
  207,  208,  209,  210,  211,  212,  213,  214,  215,  216,  217,  218,  219,  332,  333,  334
  335,  336,  337,  338,  339,  340,  341,  342,  343,  344,  345,  346,  347,  348,  349,  368
  369,  370,  371,  372,  373,  374,  375,  376,  377,  378,  379,  380,  381,  382,  383,  384
  385,  386,  387,  388,  389,  390,  391,  392,  393,  394,  395,  396,  397,  398,  399,  400
  401,  402,  403,  404,  405,  406,  407,  408,  409,  410,  411,  412,  413,  414,  415,  416
  417,  418,  419,  420,  421,  422,  423,  424,  425,  426,  427,  428,  429,  430,  431,  432
  433,  434,  435,  436,  437,  438,  439,  440,  441,  442,  443,  444,  445,  446,  447,  448
  449,  450,  451,  452,  453,  454,  455,  456,  457,  458,  459,  460,  461,  462,  463,  464
  465,  466,  467,  468,  469,  470,  471,  472,  473,  474,  475,  476,  477,  478,  479,  480
  481,  482,  483,  484,  485,  486,  487,  488,  489,  490,  491,  492,  493,  686,  687,  688
  689,  690,  691,  692,  693,  694,  695,  696,  697,  698,  699,  700,  701,  702,  703,  704
  705,  706,  707,  708,  709,  710,  711,  712,  713,  714,  715,  716,  717,  718,  719,  720
** ... 159 like lines cut
*Elset, elset=Set-1, instance=ASTMmodel-1-1, generate
  499,  2181,     1
*Nset, nset=Set-2, instance=ASTMmodel-1-1
    3,    4,    6,    9,   10,   12,   13,   15,   16,   17,   18,   19,   20,   21,   22,   23
   24,   25,   90,   92,   95,   96,   98,  100,  101,  102,  105,  106,  107,  108,  109,  110
  111,  112,  113,  114,  115,  116,  117,  118,  119,  120,  121,  122,  123,  124,  125,  126
  127,  128,  129,  130,  131,  132,  133,  134,  135,  136,  137,  138,  139,  140,  141,  142
  143,  144,  145,  146,  147,  148,  149,  150,  151,  152,  153,  154,  155,  156,  157,  158
  159,  160,  161,  162,  163,  164,  165,  166,  167,  168,  169,  170,  171,  172,  173,  174
  175,  176,  177,  178,  179,  180,  181,  182,  183,  184,  185,  186,  187,  188,  189,  190
  191,  192,  193,  194,  195,  196,  197,  198,  199,  200,  201,  202,  203,  204,  205,  206
  207,  208,  209,  210,  211,  212,  213,  214,  215,  216,  217,  218,  219,  332,  333,  334
  335,  336,  337,  338,  339,  340,  341,  342,  343,  344,  345,  346,  347,  348,  349,  368
  369,  370,  371,  372,  373,  374,  375,  376,  377,  378,  379,  380,  381,  382,  383,  384
  385,  386,  387,  388,  389,  390,  391,  392,  393,  394,  395,  396,  397,  398,  399,  400
  401,  402,  403,  404,  405,  406,  407,  408,  409,  410,  411,  412,  413,  414,  415,  416
  417,  418,  419,  420,  421,  422,  423,  424,  425,  426,  427,  428,  429,  430,  431,  432
  433,  434,  435,  436,  437,  438,  439,  440,  441,  442,  443,  444,  445,  446,  447,  448
  449,  450,  451,  452,  453,  454,  455,  456,  457,  458,  459,  460,  461,  462,  463,  464
  465,  466,  467,  468,  469,  470,  471,  472,  473,  474,  475,  476,  477,  478,  479,  480
  481,  482,  483,  484,  485,  486,  487,  488,  489,  490,  491,  492,  493,  686,  687,  688
  689,  690,  691,  692,  693,  694,  695,  696,  697,  698,  699,  700,  701,  702,  703,  704
  705,  706,  707,  708,  709,  710,  711,  712,  713,  714,  715,  716,  717,  718,  719,  720
** ... 159 like lines cut
*Elset, elset=Set-2, instance=ASTMmodel-1-1, generate
  499,  2181,     1
*Nset, nset=Set-3, instance=ASTMmodel-1-1
 26,
*End Assembly
** 
** MATERIALS
** 
*Material, name=Steel
*Elastic
113700., 0.3
** ----------------------------------------------------------------
** 
** STEP: Step-1
** 
*Step, name=Step-1, nlgeom=NO, perturbation
*Static
** 
** BOUNDARY CONDITIONS
** 
** Name: BC-1 Type: Displacement/Rotation
*Boundary
Set-2, 1, 1
Set-2, 2, 2
Set-2, 3, 3
** 
** LOADS
** 
** Name: Load-1   Type: Concentrated force
*Cload
Set-3, 1, 2300.
** 
** OUTPUT REQUESTS
** 
** 
** FIELD OUTPUT: F-Output-1
** 
*Output, field, variable=PRESELECT
** 
** HISTORY OUTPUT: H-Output-1
** 
*Output, history, variable=PRESELECT
*End Step
