*Heading
** Job name: Job_Mesh6_7 Model name: Model-1
** Generated by: Abaqus/CAE 2016
*Preprint, echo=NO, model=NO, history=NO, contact=NO
**
** PARTS
**
*Part, name=ASTMmodel-1
*End Part
**  
**
** ASSEMBLY
**
*Assembly, name=Assembly
**  
*Instance, name=ASTMmodel-1-1, part=ASTMmodel-1
3.41068750991032, -10.5976117929871, -11.4824266914838
3.41068750991032, -10.5976117929871, -11.4824266914838, 3.46909879051356, -9.8554260953639, -12.1500706743133, 13.4459728326858
*Node
      1,   12.1746359,           0.,   7.27215338
      2,   14.1453009,  -6.83062315,   2.32616854
      3,   24.3778877,  -6.52336168,    2.3195796
      4,   22.5075321,           0.,   6.97692776
      5,   14.3101625,  -5.30536079,           0.
      6,   24.5439777,  -5.01296616,           0.
      7,   12.7620077,   6.87207556,  -2.32701349
      8,   11.9373159,   6.89677906,   2.32751226
      9,    22.269165,    6.5867753,   2.32098842
     10,   23.0915508,   6.56205082,   -2.3204422
     11,   14.9616089,  -6.80615187,    -2.325665
     12,   25.1918602,  -6.49887037,  -2.31902838
     13,   24.9556408,           0.,  -6.90698147
     14,   14.7263346,           0.,  -7.19924736
     15,   98.7406616,   3.37560153,   1.48917818
     16,   98.7406616,  -3.37560153,   1.48917818
     17,    100.32077,  -2.84796977,  1.31603713e-07
     18,   98.7406616,  -3.37560153,  -1.48917818
     19,   98.7406616,   3.37560153,  -1.48917818
     20,   88.9000015,  -4.55078936,   2.25759077
** ... 7690 like lines cut
*Element, type=C3D10
  1,  682,  683,  110,  398, 1155, 1154, 1153, 1157, 1156, 1158
  2,  682,  684,  685,  686, 1161, 1160, 1159, 1163, 1162, 1164
  3,  682,  687,  688,  689, 1167, 1166, 1165, 1169, 1168, 1170
  4,  682,  689,  690,  685, 1169, 1172, 1171, 1159, 1173, 1174
  5,  682,  691,  687,  689, 1176, 1175, 1167, 1169, 1177, 1168
  6,  687,  692,  693,  694, 1180, 1179, 1178, 1182, 1181, 1183
  7,  360,  687,   94,  688, 1186, 1185, 1184, 1187, 1166, 1188
  8,  689,  687,  688,  695, 1168, 1166, 1170, 1190, 1189, 1191
  9,  688,  689,  696,  682, 1170, 1193, 1192, 1165, 1169, 1194
 10,  695,  688,  697,  687, 1191, 1196, 1195, 1189, 1166, 1197
 11,  682,  698,  684,  686, 1199, 1198, 1161, 1163, 1200, 1162
 12,  682,  688,  360,  686, 1165, 1187, 1201, 1163, 1202, 1203
 13,  699,  359,   98,  700, 1206, 1205, 1204, 1208, 1207, 1209
 14,  701,  687,  692,  702, 1211, 1180, 1210, 1213, 1212, 1214
 15,  687,   94,  688,  701, 1185, 1188, 1166, 1211, 1215, 1216
 16,  703,  704,  691,  699, 1219, 1218, 1217, 1221, 1220, 1222
 17,  705,  359,   98,  699, 1224, 1205, 1223, 1225, 1206, 1204
 18,  699,  695,  706,  707, 1228, 1227, 1226, 1230, 1229, 1231
 19,  704,  699,  695,  689, 1220, 1228, 1232, 1234, 1233, 1190
 20,  703,  699,  691,  358, 1221, 1222, 1217, 1236, 1235, 1237
** ... 4744 like lines cut
*Nset, nset=Set-1, generate
    1,  7710,     1
*Elset, elset=Set-1, generate
    1,  4764,     1
** Section: Section-1
*Solid Section, elset=Set-1, material=Steel
,
*End Instance
**  
*Nset, nset=Set-1, instance=ASTMmodel-1-1
    3,    4,    6,    9,   10,   12,   13,   15,   16,   17,   18,   19,   20,   21,   22,   23
   24,   25,   91,   95,   99,  100,  103,  106,  107,  108,  112,  113,  114,  115,  116,  117
  118,  119,  120,  121,  122,  123,  124,  125,  126,  127,  128,  129,  130,  131,  132,  133
  134,  135,  136,  137,  138,  139,  140,  141,  142,  143,  144,  145,  146,  147,  148,  149
  150,  151,  152,  153,  154,  155,  156,  157,  158,  159,  160,  161,  162,  163,  164,  165
  166,  167,  168,  169,  170,  171,  172,  173,  174,  175,  176,  177,  178,  179,  180,  181
  182,  183,  184,  185,  186,  187,  188,  189,  190,  191,  192,  193,  194,  195,  196,  197
  198,  199,  200,  201,  202,  203,  204,  205,  206,  207,  208,  209,  210,  211,  212,  213
  214,  215,  216,  217,  218,  219,  220,  221,  222,  223,  224,  225,  226,  227,  228,  229
  230,  231,  232,  233,  234,  235,  236,  237,  238,  239,  240,  361,  362,  363,  364,  365
  366,  367,  368,  369,  370,  371,  372,  373,  374,  375,  376,  377,  378,  399,  400,  401
  402,  403,  404,  405,  406,  407,  408,  409,  410,  411,  412,  413,  414,  415,  416,  417
  418,  419,  420,  421,  422,  423,  424,  425,  426,  427,  428,  429,  430,  431,  432,  433
  434,  435,  436,  437,  438,  439,  440,  441,  442,  443,  444,  445,  446,  447,  448,  449
  450,  451,  452,  453,  454,  455,  456,  457,  458,  459,  460,  461,  462,  463,  464,  465
  466,  467,  468,  469,  470,  471,  472,  473,  474,  475,  476,  477,  478,  479,  480,  481
  482,  483,  484,  485,  486,  487,  488,  489,  490,  491,  492,  493,  494,  495,  496,  497
  498,  499,  500,  501,  502,  503,  504,  505,  506,  507,  508,  509,  510,  511,  512,  513
  514,  515,  516,  517,  518,  519,  520,  521,  522,  523,  524,  525,  526,  527,  528,  529
  530,  531,  532,  533,  534,  535,  536,  537,  538,  539,  540,  541,  717,  718,  719,  720
** ... 186 like lines cut
*Elset, elset=Set-1, instance=ASTMmodel-1-1, generate
  398,  2353,     1
*Nset, nset=Set-2, instance=ASTMmodel-1-1
    3,    4,    6,    9,   10,   12,   13,   15,   16,   17,   18,   19,   20,   21,   22,   23
   24,   25,   91,   95,   99,  100,  103,  106,  107,  108,  112,  113,  114,  115,  116,  117
  118,  119,  120,  121,  122,  123,  124,  125,  126,  127,  128,  129,  130,  131,  132,  133
  134,  135,  136,  137,  138,  139,  140,  141,  142,  143,  144,  145,  146,  147,  148,  149
  150,  151,  152,  153,  154,  155,  156,  157,  158,  159,  160,  161,  162,  163,  164,  165
  166,  167,  168,  169,  170,  171,  172,  173,  174,  175,  176,  177,  178,  179,  180,  181
  182,  183,  184,  185,  186,  187,  188,  189,  190,  191,  192,  193,  194,  195,  196,  197
  198,  199,  200,  201,  202,  203,  204,  205,  206,  207,  208,  209,  210,  211,  212,  213
  214,  215,  216,  217,  218,  219,  220,  221,  222,  223,  224,  225,  226,  227,  228,  229
  230,  231,  232,  233,  234,  235,  236,  237,  238,  239,  240,  361,  362,  363,  364,  365
  366,  367,  368,  369,  370,  371,  372,  373,  374,  375,  376,  377,  378,  399,  400,  401
  402,  403,  404,  405,  406,  407,  408,  409,  410,  411,  412,  413,  414,  415,  416,  417
  418,  419,  420,  421,  422,  423,  424,  425,  426,  427,  428,  429,  430,  431,  432,  433
  434,  435,  436,  437,  438,  439,  440,  441,  442,  443,  444,  445,  446,  447,  448,  449
  450,  451,  452,  453,  454,  455,  456,  457,  458,  459,  460,  461,  462,  463,  464,  465
  466,  467,  468,  469,  470,  471,  472,  473,  474,  475,  476,  477,  478,  479,  480,  481
  482,  483,  484,  485,  486,  487,  488,  489,  490,  491,  492,  493,  494,  495,  496,  497
  498,  499,  500,  501,  502,  503,  504,  505,  506,  507,  508,  509,  510,  511,  512,  513
  514,  515,  516,  517,  518,  519,  520,  521,  522,  523,  524,  525,  526,  527,  528,  529
  530,  531,  532,  533,  534,  535,  536,  537,  538,  539,  540,  541,  717,  718,  719,  720
** ... 186 like lines cut
*Elset, elset=Set-2, instance=ASTMmodel-1-1, generate
  398,  2353,     1
*Nset, nset=Set-3, instance=ASTMmodel-1-1
 26,
*End Assembly
** 
** MATERIALS
** 
*Material, name=Steel
*Elastic
113700., 0.3
** ----------------------------------------------------------------
** 
** STEP: Step-1
** 
*Step, name=Step-1, nlgeom=NO, perturbation
*Static
** 
** BOUNDARY CONDITIONS
** 
** Name: BC-1 Type: Displacement/Rotation
*Boundary
Set-2, 1, 1
Set-2, 2, 2
Set-2, 3, 3
** 
** LOADS
** 
** Name: Load-1   Type: Concentrated force
*Cload
Set-3, 1, 2300.
** 
** OUTPUT REQUESTS
** 
** 
** FIELD OUTPUT: F-Output-1
** 
*Output, field, variable=PRESELECT
** 
** HISTORY OUTPUT: H-Output-1
** 
*Output, history, variable=PRESELECT
*End Step
