*Heading
** Job name: Job_Mesh6_Bias_1 Model name: Model-1
** Generated by: Abaqus/CAE 2016
*Preprint, echo=NO, model=NO, history=NO, contact=NO
**
** PARTS
**
*Part, name=ASTMmodel-1
*End Part
**  
**
** ASSEMBLY
**
*Assembly, name=Assembly
**  
*Instance, name=ASTMmodel-1-1, part=ASTMmodel-1
3.41068750991032, -10.5976117929871, -11.4824266914838
3.41068750991032, -10.5976117929871, -11.4824266914838, 3.46909879051356, -9.8554260953639, -12.1500706743133, 13.4459728326858
*Node
      1,   12.1746359,           0.,   7.27215338
      2,   14.1453009,  -6.83062315,   2.32616854
      3,   24.3778877,  -6.52336168,    2.3195796
      4,   22.5075321,           0.,   6.97692776
      5,   14.3101625,  -5.30536079,           0.
      6,   24.5439777,  -5.01296616,           0.
      7,   12.7620077,   6.87207556,  -2.32701349
      8,   11.9373159,   6.89677906,   2.32751226
      9,    22.269165,    6.5867753,   2.32098842
     10,   23.0915508,   6.56205082,   -2.3204422
     11,   14.9616089,  -6.80615187,    -2.325665
     12,   25.1918602,  -6.49887037,  -2.31902838
     13,   24.9556408,           0.,  -6.90698147
     14,   14.7263346,           0.,  -7.19924736
     15,   98.7406616,   3.37560153,   1.48917818
     16,   98.7406616,  -3.37560153,   1.48917818
     17,    100.32077,  -2.84796977,  1.31603713e-07
     18,   98.7406616,  -3.37560153,  -1.48917818
     19,   98.7406616,   3.37560153,  -1.48917818
     20,   88.9000015,  -4.55078936,   2.25759077
** ... 34118 like lines cut
*Element, type=C3D10
   1, 2332, 2333, 2334, 2335, 4862, 4861, 4860, 4864, 4863, 4865
   2, 2332, 2336, 2337, 2338, 4868, 4867, 4866, 4870, 4869, 4871
   3, 2332, 2336, 2339, 2337, 4868, 4873, 4872, 4866, 4867, 4874
   4, 2340, 2341, 2342, 2343, 4877, 4876, 4875, 4879, 4878, 4880
   5, 2340, 2344, 2345, 2336, 4883, 4882, 4881, 4885, 4884, 4886
   6, 2340, 2346, 2347, 2342, 4889, 4888, 4887, 4875, 4890, 4891
   7, 2340, 2348, 2349, 2350, 4894, 4893, 4892, 4896, 4895, 4897
   8, 2340, 2351, 2336, 2352, 4899, 4898, 4885, 4901, 4900, 4902
   9, 2340, 2348, 2350, 2342, 4894, 4895, 4896, 4875, 4903, 4904
  10, 2340, 2341, 2353, 2342, 4877, 4906, 4905, 4875, 4876, 4907
  11, 2348, 2340, 2344, 2345, 4894, 4883, 4908, 4909, 4881, 4882
  12, 2340, 2336, 2345, 2354, 4885, 4886, 4881, 4911, 4910, 4912
  13, 2355,  845,  133,  844, 4915, 4914, 4913, 4917, 4916, 4918
  14, 2340, 2353, 2348, 2342, 4905, 4919, 4894, 4875, 4907, 4903
  15, 2356, 2357, 2358, 2359, 4922, 4921, 4920, 4924, 4923, 4925
  16, 2356, 2360, 2359, 2361, 4927, 4926, 4924, 4929, 4928, 4930
  17, 2362, 2356, 2363, 2364, 4933, 4932, 4931, 4935, 4934, 4936
  18, 2356, 2364, 2365, 2363, 4934, 4938, 4937, 4932, 4936, 4939
  19, 2356, 2366, 2364, 2362, 4941, 4940, 4934, 4933, 4942, 4935
  20, 2356, 2360, 2361, 2366, 4927, 4928, 4929, 4941, 4943, 4944
** ... 22176 like lines cut
*Nset, nset=Set-1, generate
     1,  34138,      1
*Elset, elset=Set-1, generate
     1,  22196,      1
** Section: Section-1
*Solid Section, elset=Set-1, material=Steel
,
*End Instance
**  
*Nset, nset=Set-1, instance=ASTMmodel-1-1
     3,     4,     6,     9,    10,    12,    13,    15,    16,    17,    18,    19,    20,    21,    22,    23
    24,    25,    97,    98,    99,   100,   101,   102,   110,   116,   117,   124,   125,   126,   131,   132
   133,   134,   135,   136,   137,   138,   139,   140,   153,   154,   155,   156,   157,   158,   159,   160
   161,   162,   163,   164,   165,   166,   167,   168,   169,   170,   171,   172,   173,   174,   175,   176
   177,   178,   179,   180,   181,   182,   183,   184,   185,   186,   187,   188,   189,   190,   191,   192
   193,   194,   195,   196,   197,   198,   199,   200,   201,   202,   203,   204,   205,   206,   207,   208
   209,   210,   211,   212,   213,   214,   215,   216,   217,   218,   219,   220,   221,   222,   223,   224
   225,   226,   227,   228,   229,   230,   231,   232,   233,   234,   235,   236,   237,   238,   239,   240
   241,   242,   243,   244,   245,   246,   247,   248,   249,   250,   251,   252,   253,   254,   255,   256
   257,   258,   259,   260,   261,   262,   263,   264,   265,   266,   267,   268,   269,   270,   271,   272
   273,   274,   275,   276,   277,   278,   279,   280,   281,   282,   283,   284,   285,   286,   287,   288
   289,   290,   291,   292,   293,   294,   295,   296,   297,   298,   299,   300,   301,   302,   303,   304
   305,   306,   307,   308,   309,   310,   311,   312,   313,   314,   315,   316,   317,   318,   319,   320
   321,   322,   323,   324,   325,   326,   327,   328,   329,   330,   331,   332,   333,   334,   335,   336
   337,   338,   339,   340,   341,   342,   343,   344,   345,   346,   347,   348,   349,   350,   351,   352
   353,   354,   355,   356,   357,   358,   359,   360,   361,   362,   363,   364,   365,   366,   367,   368
   369,   370,   371,   372,   373,   374,   375,   376,   377,   378,   379,   380,   381,   382,   383,   384
   385,   386,   387,   388,   389,   390,   391,   392,   393,   394,   395,   396,   397,   398,   399,   400
   401,   402,   403,   404,   405,   406,   407,   408,   409,   410,   715,   716,   717,   718,   719,   720
   721,   722,   723,   724,   725,   726,   727,   728,   729,   730,   731,   732,   733,   734,   735,   736
** ... 783 like lines cut
*Elset, elset=Set-1, instance=ASTMmodel-1-1, generate
 1856,  9797,     1
*Nset, nset=Set-2, instance=ASTMmodel-1-1
     3,     4,     6,     9,    10,    12,    13,    15,    16,    17,    18,    19,    20,    21,    22,    23
    24,    25,    97,    98,    99,   100,   101,   102,   110,   116,   117,   124,   125,   126,   131,   132
   133,   134,   135,   136,   137,   138,   139,   140,   153,   154,   155,   156,   157,   158,   159,   160
   161,   162,   163,   164,   165,   166,   167,   168,   169,   170,   171,   172,   173,   174,   175,   176
   177,   178,   179,   180,   181,   182,   183,   184,   185,   186,   187,   188,   189,   190,   191,   192
   193,   194,   195,   196,   197,   198,   199,   200,   201,   202,   203,   204,   205,   206,   207,   208
   209,   210,   211,   212,   213,   214,   215,   216,   217,   218,   219,   220,   221,   222,   223,   224
   225,   226,   227,   228,   229,   230,   231,   232,   233,   234,   235,   236,   237,   238,   239,   240
   241,   242,   243,   244,   245,   246,   247,   248,   249,   250,   251,   252,   253,   254,   255,   256
   257,   258,   259,   260,   261,   262,   263,   264,   265,   266,   267,   268,   269,   270,   271,   272
   273,   274,   275,   276,   277,   278,   279,   280,   281,   282,   283,   284,   285,   286,   287,   288
   289,   290,   291,   292,   293,   294,   295,   296,   297,   298,   299,   300,   301,   302,   303,   304
   305,   306,   307,   308,   309,   310,   311,   312,   313,   314,   315,   316,   317,   318,   319,   320
   321,   322,   323,   324,   325,   326,   327,   328,   329,   330,   331,   332,   333,   334,   335,   336
   337,   338,   339,   340,   341,   342,   343,   344,   345,   346,   347,   348,   349,   350,   351,   352
   353,   354,   355,   356,   357,   358,   359,   360,   361,   362,   363,   364,   365,   366,   367,   368
   369,   370,   371,   372,   373,   374,   375,   376,   377,   378,   379,   380,   381,   382,   383,   384
   385,   386,   387,   388,   389,   390,   391,   392,   393,   394,   395,   396,   397,   398,   399,   400
   401,   402,   403,   404,   405,   406,   407,   408,   409,   410,   715,   716,   717,   718,   719,   720
   721,   722,   723,   724,   725,   726,   727,   728,   729,   730,   731,   732,   733,   734,   735,   736
** ... 783 like lines cut
*Elset, elset=Set-2, instance=ASTMmodel-1-1, generate
 1856,  9797,     1
*Nset, nset=Set-3, instance=ASTMmodel-1-1
 26,
*End Assembly
** 
** MATERIALS
** 
*Material, name=Steel
*Elastic
113700., 0.3
** ----------------------------------------------------------------
** 
** STEP: Step-1
** 
*Step, name=Step-1, nlgeom=NO, perturbation
*Static
** 
** BOUNDARY CONDITIONS
** 
** Name: BC-1 Type: Displacement/Rotation
*Boundary
Set-2, 1, 1
Set-2, 2, 2
Set-2, 3, 3
** 
** LOADS
** 
** Name: Load-1   Type: Concentrated force
*Cload
Set-3, 1, 2300.
** 
** OUTPUT REQUESTS
** 
** 
** FIELD OUTPUT: F-Output-1
** 
*Output, field, variable=PRESELECT
** 
** HISTORY OUTPUT: H-Output-1
** 
*Output, history, variable=PRESELECT
*End Step
