*Heading
** Job name: Job_Mesh6_Bias_0-8 Model name: Model-1
** Generated by: Abaqus/CAE 2016
*Preprint, echo=NO, model=NO, history=NO, contact=NO
**
** PARTS
**
*Part, name=ASTMmodel-1
*End Part
**  
**
** ASSEMBLY
**
*Assembly, name=Assembly
**  
*Instance, name=ASTMmodel-1-1, part=ASTMmodel-1
3.41068750991032, -10.5976117929871, -11.4824266914838
3.41068750991032, -10.5976117929871, -11.4824266914838, 3.46909879051356, -9.8554260953639, -12.1500706743133, 13.4459728326858
*Node
      1,   12.1746359,           0.,   7.27215338
      2,   14.1453009,  -6.83062315,   2.32616854
      3,   24.3778877,  -6.52336168,    2.3195796
      4,   22.5075321,           0.,   6.97692776
      5,   14.3101625,  -5.30536079,           0.
      6,   24.5439777,  -5.01296616,           0.
      7,   12.7620077,   6.87207556,  -2.32701349
      8,   11.9373159,   6.89677906,   2.32751226
      9,    22.269165,    6.5867753,   2.32098842
     10,   23.0915508,   6.56205082,   -2.3204422
     11,   14.9616089,  -6.80615187,    -2.325665
     12,   25.1918602,  -6.49887037,  -2.31902838
     13,   24.9556408,           0.,  -6.90698147
     14,   14.7263346,           0.,  -7.19924736
     15,   98.7406616,   3.37560153,   1.48917818
     16,   98.7406616,  -3.37560153,   1.48917818
     17,    100.32077,  -2.84796977,  1.31603713e-07
     18,   98.7406616,  -3.37560153,  -1.48917818
     19,   98.7406616,   3.37560153,  -1.48917818
     20,   88.9000015,  -4.55078936,   2.25759077
** ... 35379 like lines cut
*Element, type=C3D10
   1, 2446, 2447, 2448, 2449, 5045, 5044, 5043, 5047, 5046, 5048
   2, 2446, 2450, 2448, 2451, 5050, 5049, 5043, 5052, 5051, 5053
   3, 2446, 2452, 2453, 2454, 5056, 5055, 5054, 5058, 5057, 5059
   4, 2446, 2453, 2455, 2454, 5054, 5061, 5060, 5058, 5059, 5062
   5, 2446, 2456, 2447, 2449, 5064, 5063, 5045, 5047, 5065, 5046
   6, 2446, 2450, 2457, 2454, 5050, 5067, 5066, 5058, 5068, 5069
   7, 2446, 2458, 2451, 2456, 5071, 5070, 5052, 5064, 5072, 5073
   8, 2453, 2459, 2460, 2461, 5076, 5075, 5074, 5078, 5077, 5079
   9, 2462, 2453, 2452, 2461, 5081, 5055, 5080, 5082, 5078, 5083
  10, 2453, 2455, 2454, 2463, 5061, 5062, 5059, 5085, 5084, 5086
  11, 2462, 2464, 2465, 2446, 5089, 5088, 5087, 5091, 5090, 5092
  12, 2446, 2449, 2462, 2464, 5047, 5093, 5091, 5090, 5094, 5089
  13, 2466,  793,  801,  800, 5097, 5096, 5095, 5099, 5098, 5100
  14, 2453, 2449, 2455, 2467, 5102, 5101, 5061, 5104, 5103, 5105
  15, 2446, 2453, 2452, 2462, 5054, 5055, 5056, 5091, 5081, 5080
  16, 2446, 2454, 2457, 2452, 5058, 5069, 5066, 5056, 5057, 5106
  17, 2446, 2448, 2450, 2454, 5043, 5049, 5050, 5058, 5107, 5068
  18, 2450, 2454, 2468, 2457, 5068, 5109, 5108, 5067, 5069, 5110
  19, 2450, 2469, 2470, 2471, 5113, 5112, 5111, 5115, 5114, 5116
  20, 2472, 2473, 2474, 2450, 5119, 5118, 5117, 5121, 5120, 5122
** ... 22964 like lines cut
*Nset, nset=Set-1, generate
     1,  35399,      1
*Elset, elset=Set-1, generate
     1,  22984,      1
** Section: Section-1
*Solid Section, elset=Set-1, material=Steel
,
*End Instance
**  
*Nset, nset=Set-1, instance=ASTMmodel-1-1
     3,     4,     6,     9,    10,    12,    13,    15,    16,    17,    18,    19,    20,    21,    22,    23
    24,    25,    98,    99,   100,   101,   102,   103,   104,   112,   118,   119,   126,   127,   128,   133
   134,   135,   136,   137,   138,   139,   140,   141,   142,   143,   157,   158,   159,   160,   161,   162
   163,   164,   165,   166,   167,   168,   169,   170,   171,   172,   173,   174,   175,   176,   177,   178
   179,   180,   181,   182,   183,   184,   185,   186,   187,   188,   189,   190,   191,   192,   193,   194
   195,   196,   197,   198,   199,   200,   201,   202,   203,   204,   205,   206,   207,   208,   209,   210
   211,   212,   213,   214,   215,   216,   217,   218,   219,   220,   221,   222,   223,   224,   225,   226
   227,   228,   229,   230,   231,   232,   233,   234,   235,   236,   237,   238,   239,   240,   241,   242
   243,   244,   245,   246,   247,   248,   249,   250,   251,   252,   253,   254,   255,   256,   257,   258
   259,   260,   261,   262,   263,   264,   265,   266,   267,   268,   269,   270,   271,   272,   273,   274
   275,   276,   277,   278,   279,   280,   281,   282,   283,   284,   285,   286,   287,   288,   289,   290
   291,   292,   293,   294,   295,   296,   297,   298,   299,   300,   301,   302,   303,   304,   305,   306
   307,   308,   309,   310,   311,   312,   313,   314,   315,   316,   317,   318,   319,   320,   321,   322
   323,   324,   325,   326,   327,   328,   329,   330,   331,   332,   333,   334,   335,   336,   337,   338
   339,   340,   341,   342,   343,   344,   345,   346,   347,   348,   349,   350,   351,   352,   353,   354
   355,   356,   357,   358,   359,   360,   361,   362,   363,   364,   365,   366,   367,   368,   369,   370
   371,   372,   373,   374,   375,   376,   377,   378,   379,   380,   381,   382,   383,   384,   385,   386
   387,   388,   389,   390,   391,   392,   393,   394,   395,   396,   397,   398,   399,   400,   401,   402
   403,   404,   405,   406,   407,   408,   409,   410,   411,   412,   413,   414,   415,   416,   417,   418
   729,   730,   731,   732,   733,   734,   735,   736,   737,   738,   739,   740,   741,   742,   743,   744
** ... 826 like lines cut
*Elset, elset=Set-1, instance=ASTMmodel-1-1, generate
  1956,  10294,      1
*Nset, nset=Set-2, instance=ASTMmodel-1-1
     3,     4,     6,     9,    10,    12,    13,    15,    16,    17,    18,    19,    20,    21,    22,    23
    24,    25,    98,    99,   100,   101,   102,   103,   104,   112,   118,   119,   126,   127,   128,   133
   134,   135,   136,   137,   138,   139,   140,   141,   142,   143,   157,   158,   159,   160,   161,   162
   163,   164,   165,   166,   167,   168,   169,   170,   171,   172,   173,   174,   175,   176,   177,   178
   179,   180,   181,   182,   183,   184,   185,   186,   187,   188,   189,   190,   191,   192,   193,   194
   195,   196,   197,   198,   199,   200,   201,   202,   203,   204,   205,   206,   207,   208,   209,   210
   211,   212,   213,   214,   215,   216,   217,   218,   219,   220,   221,   222,   223,   224,   225,   226
   227,   228,   229,   230,   231,   232,   233,   234,   235,   236,   237,   238,   239,   240,   241,   242
   243,   244,   245,   246,   247,   248,   249,   250,   251,   252,   253,   254,   255,   256,   257,   258
   259,   260,   261,   262,   263,   264,   265,   266,   267,   268,   269,   270,   271,   272,   273,   274
   275,   276,   277,   278,   279,   280,   281,   282,   283,   284,   285,   286,   287,   288,   289,   290
   291,   292,   293,   294,   295,   296,   297,   298,   299,   300,   301,   302,   303,   304,   305,   306
   307,   308,   309,   310,   311,   312,   313,   314,   315,   316,   317,   318,   319,   320,   321,   322
   323,   324,   325,   326,   327,   328,   329,   330,   331,   332,   333,   334,   335,   336,   337,   338
   339,   340,   341,   342,   343,   344,   345,   346,   347,   348,   349,   350,   351,   352,   353,   354
   355,   356,   357,   358,   359,   360,   361,   362,   363,   364,   365,   366,   367,   368,   369,   370
   371,   372,   373,   374,   375,   376,   377,   378,   379,   380,   381,   382,   383,   384,   385,   386
   387,   388,   389,   390,   391,   392,   393,   394,   395,   396,   397,   398,   399,   400,   401,   402
   403,   404,   405,   406,   407,   408,   409,   410,   411,   412,   413,   414,   415,   416,   417,   418
   729,   730,   731,   732,   733,   734,   735,   736,   737,   738,   739,   740,   741,   742,   743,   744
** ... 826 like lines cut
*Elset, elset=Set-2, instance=ASTMmodel-1-1, generate
  1956,  10294,      1
*Nset, nset=Set-3, instance=ASTMmodel-1-1
 26,
*End Assembly
** 
** MATERIALS
** 
*Material, name=Steel
*Elastic
113700., 0.3
** ----------------------------------------------------------------
** 
** STEP: Step-1
** 
*Step, name=Step-1, nlgeom=NO, perturbation
*Static
** 
** BOUNDARY CONDITIONS
** 
** Name: BC-1 Type: Displacement/Rotation
*Boundary
Set-2, 1, 1
Set-2, 2, 2
Set-2, 3, 3
** 
** LOADS
** 
** Name: Load-1   Type: Concentrated force
*Cload
Set-3, 1, 2300.
** 
** OUTPUT REQUESTS
** 
** 
** FIELD OUTPUT: F-Output-1
** 
*Output, field, variable=PRESELECT
** 
** HISTORY OUTPUT: H-Output-1
** 
*Output, history, variable=PRESELECT
*End Step
