*Heading
** Job name: Job_Mesh6_Bias_0-5 Model name: Model-1
** Generated by: Abaqus/CAE 2016
*Preprint, echo=NO, model=NO, history=NO, contact=NO
**
** PARTS
**
*Part, name=ASTMmodel-1
*End Part
**  
**
** ASSEMBLY
**
*Assembly, name=Assembly
**  
*Instance, name=ASTMmodel-1-1, part=ASTMmodel-1
3.41068750991032, -10.5976117929871, -11.4824266914838
3.41068750991032, -10.5976117929871, -11.4824266914838, 3.46909879051356, -9.8554260953639, -12.1500706743133, 13.4459728326858
*Node
      1,   12.1746359,           0.,   7.27215338
      2,   14.1453009,  -6.83062315,   2.32616854
      3,   24.3778877,  -6.52336168,    2.3195796
      4,   22.5075321,           0.,   6.97692776
      5,   14.3101625,  -5.30536079,           0.
      6,   24.5439777,  -5.01296616,           0.
      7,   12.7620077,   6.87207556,  -2.32701349
      8,   11.9373159,   6.89677906,   2.32751226
      9,    22.269165,    6.5867753,   2.32098842
     10,   23.0915508,   6.56205082,   -2.3204422
     11,   14.9616089,  -6.80615187,    -2.325665
     12,   25.1918602,  -6.49887037,  -2.31902838
     13,   24.9556408,           0.,  -6.90698147
     14,   14.7263346,           0.,  -7.19924736
     15,   98.7406616,   3.37560153,   1.48917818
     16,   98.7406616,  -3.37560153,   1.48917818
     17,    100.32077,  -2.84796977,  1.31603713e-07
     18,   98.7406616,  -3.37560153,  -1.48917818
     19,   98.7406616,   3.37560153,  -1.48917818
     20,   88.9000015,           0.,   5.07999992
** ... 39302 like lines cut
*Element, type=C3D10
   1, 2704, 2705, 2706, 2707, 5576, 5575, 5574, 5578, 5577, 5579
   2, 2708, 2709, 2710, 2705, 5582, 5581, 5580, 5584, 5583, 5585
   3, 2705, 2706, 2711, 2712, 5575, 5587, 5586, 5589, 5588, 5590
   4, 2705, 2704, 2706, 2712, 5576, 5574, 5575, 5589, 5591, 5588
   5, 2711, 2712, 2710, 2705, 5590, 5593, 5592, 5586, 5589, 5585
   6,  876, 2713,  889,  860, 5596, 5595, 5594, 5598, 5597, 5599
   7, 2705, 2714, 2715, 2716, 5602, 5601, 5600, 5604, 5603, 5605
   8, 2705, 2709, 2710, 2716, 5583, 5581, 5585, 5604, 5606, 5607
   9, 2717, 2712, 2706, 2718, 5609, 5588, 5608, 5611, 5610, 5612
  10,  112, 2719, 2720, 2721, 5615, 5614, 5613, 5617, 5616, 5618
  11, 2706, 2722, 2723, 2718, 5621, 5620, 5619, 5612, 5622, 5623
  12, 2706, 2722, 2718, 2724, 5621, 5622, 5612, 5625, 5624, 5626
  13, 2725,  778,  792,  788, 5629, 5628, 5627, 5631, 5630, 5632
  14, 2706, 2712, 2704, 2724, 5588, 5591, 5574, 5625, 5633, 5634
  15, 2718, 2717, 2726, 2706, 5611, 5636, 5635, 5612, 5608, 5637
  16, 2727, 2728, 2729, 2730, 5640, 5639, 5638, 5642, 5641, 5643
  17, 2727, 2731, 2732, 2733, 5646, 5645, 5644, 5648, 5647, 5649
  18, 2734, 2727, 2735, 2730, 5652, 5651, 5650, 5653, 5642, 5654
  19, 2727, 2736, 2731, 2737, 5656, 5655, 5646, 5658, 5657, 5659
  20, 2730, 2734, 2738, 2735, 5653, 5661, 5660, 5654, 5650, 5662
** ... 25607 like lines cut
*Nset, nset=Set-1, generate
     1,  39322,      1
*Elset, elset=Set-1, generate
     1,  25627,      1
** Section: Section-1
*Solid Section, elset=Set-1, material=Steel
,
*End Instance
**  
*Nset, nset=Set-1, instance=ASTMmodel-1-1
     3,     4,     6,     9,    10,    12,    13,    15,    16,    17,    18,    19,    20,    21,    22,    23
    24,    25,   101,   102,   103,   104,   105,   106,   107,   108,   109,   110,   118,   124,   125,   133
   134,   135,   136,   141,   142,   143,   144,   145,   146,   147,   148,   149,   150,   151,   152,   153
   154,   155,   173,   174,   175,   176,   177,   178,   179,   180,   181,   182,   183,   184,   185,   186
   187,   188,   189,   190,   191,   192,   193,   194,   195,   196,   197,   198,   199,   200,   201,   202
   203,   204,   205,   206,   207,   208,   209,   210,   211,   212,   213,   214,   215,   216,   217,   218
   219,   220,   221,   222,   223,   224,   225,   226,   227,   228,   229,   230,   231,   232,   233,   234
   235,   236,   237,   238,   239,   240,   241,   242,   243,   244,   245,   246,   247,   248,   249,   250
   251,   252,   253,   254,   255,   256,   257,   258,   259,   260,   261,   262,   263,   264,   265,   266
   267,   268,   269,   270,   271,   272,   273,   274,   275,   276,   277,   278,   279,   280,   281,   282
   283,   284,   285,   286,   287,   288,   289,   290,   291,   292,   293,   294,   295,   296,   297,   298
   299,   300,   301,   302,   303,   304,   305,   306,   307,   308,   309,   310,   311,   312,   313,   314
   315,   316,   317,   318,   319,   320,   321,   322,   323,   324,   325,   326,   327,   328,   329,   330
   331,   332,   333,   334,   335,   336,   337,   338,   339,   340,   341,   342,   343,   344,   345,   346
   347,   348,   349,   350,   351,   352,   353,   354,   355,   356,   357,   358,   359,   360,   361,   362
   363,   364,   365,   366,   367,   368,   369,   370,   371,   372,   373,   374,   375,   376,   377,   378
   379,   380,   381,   382,   383,   384,   385,   386,   387,   388,   389,   390,   391,   392,   393,   394
   395,   396,   397,   398,   399,   400,   401,   402,   403,   404,   405,   406,   407,   408,   409,   410
   411,   412,   413,   414,   415,   416,   417,   418,   419,   420,   421,   422,   423,   424,   767,   768
   769,   770,   771,   772,   773,   774,   775,   776,   777,   778,   779,   780,   781,   782,   783,   784
** ... 926 like lines cut
*Elset, elset=Set-1, instance=ASTMmodel-1-1, generate
  2518,  11876,      1
*Nset, nset=Set-2, instance=ASTMmodel-1-1
     3,     4,     6,     9,    10,    12,    13,    15,    16,    17,    18,    19,    20,    21,    22,    23
    24,    25,   101,   102,   103,   104,   105,   106,   107,   108,   109,   110,   118,   124,   125,   133
   134,   135,   136,   141,   142,   143,   144,   145,   146,   147,   148,   149,   150,   151,   152,   153
   154,   155,   173,   174,   175,   176,   177,   178,   179,   180,   181,   182,   183,   184,   185,   186
   187,   188,   189,   190,   191,   192,   193,   194,   195,   196,   197,   198,   199,   200,   201,   202
   203,   204,   205,   206,   207,   208,   209,   210,   211,   212,   213,   214,   215,   216,   217,   218
   219,   220,   221,   222,   223,   224,   225,   226,   227,   228,   229,   230,   231,   232,   233,   234
   235,   236,   237,   238,   239,   240,   241,   242,   243,   244,   245,   246,   247,   248,   249,   250
   251,   252,   253,   254,   255,   256,   257,   258,   259,   260,   261,   262,   263,   264,   265,   266
   267,   268,   269,   270,   271,   272,   273,   274,   275,   276,   277,   278,   279,   280,   281,   282
   283,   284,   285,   286,   287,   288,   289,   290,   291,   292,   293,   294,   295,   296,   297,   298
   299,   300,   301,   302,   303,   304,   305,   306,   307,   308,   309,   310,   311,   312,   313,   314
   315,   316,   317,   318,   319,   320,   321,   322,   323,   324,   325,   326,   327,   328,   329,   330
   331,   332,   333,   334,   335,   336,   337,   338,   339,   340,   341,   342,   343,   344,   345,   346
   347,   348,   349,   350,   351,   352,   353,   354,   355,   356,   357,   358,   359,   360,   361,   362
   363,   364,   365,   366,   367,   368,   369,   370,   371,   372,   373,   374,   375,   376,   377,   378
   379,   380,   381,   382,   383,   384,   385,   386,   387,   388,   389,   390,   391,   392,   393,   394
   395,   396,   397,   398,   399,   400,   401,   402,   403,   404,   405,   406,   407,   408,   409,   410
   411,   412,   413,   414,   415,   416,   417,   418,   419,   420,   421,   422,   423,   424,   767,   768
   769,   770,   771,   772,   773,   774,   775,   776,   777,   778,   779,   780,   781,   782,   783,   784
** ... 926 like lines cut
*Elset, elset=Set-2, instance=ASTMmodel-1-1, generate
  2518,  11876,      1
*Nset, nset=Set-3, instance=ASTMmodel-1-1
 26,
*End Assembly
** 
** MATERIALS
** 
*Material, name=Steel
*Elastic
113700., 0.3
** ----------------------------------------------------------------
** 
** STEP: Step-1
** 
*Step, name=Step-1, nlgeom=NO, perturbation
*Static
** 
** BOUNDARY CONDITIONS
** 
** Name: BC-1 Type: Displacement/Rotation
*Boundary
Set-2, 1, 1
Set-2, 2, 2
Set-2, 3, 3
** 
** LOADS
** 
** Name: Load-1   Type: Concentrated force
*Cload
Set-3, 1, 2300.
** 
** OUTPUT REQUESTS
** 
** 
** FIELD OUTPUT: F-Output-1
** 
*Output, field, variable=PRESELECT
** 
** HISTORY OUTPUT: H-Output-1
** 
*Output, history, variable=PRESELECT
*End Step
